/*--------------------------------*- C++ -*----------------------------------*\
  =========                 |
  \\      /  F ield         | OpenFOAM: The Open Source CFD Toolbox
   \\    /   O peration     | Website:  https://openfoam.org
    \\  /    A nd           | Version:  8
     \\/     M anipulation  |
\*---------------------------------------------------------------------------*/
FoamFile
{
    version     2.0;
    format      ascii;
    class       polyBoundaryMesh;
    location    "constant/polyMesh";
    object      boundary;
}
// * * * * * * * * * * * * * * * * * * * * * * * * * * * * * * * * * * * * * //

5
(
    floor
    {
        type            wall;
        inGroups        List<word> 1(wall);
        nFaces          400;
        startFace       11200;
    }
    ceiling
    {
        type            wall;
        inGroups        List<word> 1(wall);
        nFaces          400;
        startFace       11600;
    }
    fixedWalls
    {
        type            wall;
        inGroups        List<word> 1(wall);
        nFaces          400;
        startFace       12000;
    }
    inlet
    {
        type            patch;
        nFaces          200;
        startFace       12400;
    }
    outlet
    {
        type            patch;
        nFaces          200;
        startFace       12600;
    }
)

// ************************************************************************* //
