/*--------------------------------*- C++ -*----------------------------------*\
  =========                 |
  \\      /  F ield         | OpenFOAM: The Open Source CFD Toolbox
   \\    /   O peration     | Website:  https://openfoam.org
    \\  /    A nd           | Version:  8
     \\/     M anipulation  |
\*---------------------------------------------------------------------------*/
FoamFile
{
    version     2.0;
    format      ascii;
    class       dictionary;
    object      blockMeshDict;
}
// * * * * * * * * * * * * * * * * * * * * * * * * * * * * * * * * * * * * * //

convertToMeters 1;

vertices
(
    (0 0 0)  //0
    (10 0 0) //1
    (10 5 0) //2
    (0 5 0)  //3
    (0 0 10) //4
    (10 0 10)//5
    (10 5 10)//6
    (0 5 10) //7
);

blocks
(
    hex (0 1 2 3 4 5 6 7) (20 10 20) simpleGrading (1 1 1)
);

edges
(
);

boundary
(
    floor
    {
        type wall;
        faces
        (
            (1 5 4 0)
        );
    }
    ceiling
    {
        type wall;
        faces
        (
            (3 7 6 2)
        );
    }
    fixedWalls
    {
        type wall;
        faces
        (
            (0 3 2 1)
            (4 5 6 7)
        );
    }
    inlet
    {
        type patch;
        faces
        (
            (0 4 7 3)
        );
    }
    outlet
    {
        type patch;
        faces
        (
            (2 6 5 1)
        );
    }
);

mergePatchPairs
(
);

// ************************************************************************* //
