/*--------------------------------*- C++ -*----------------------------------*\
  =========                 |
  \\      /  F ield         | OpenFOAM: The Open Source CFD Toolbox
   \\    /   O peration     | Website:  https://openfoam.org
    \\  /    A nd           | Version:  8
     \\/     M anipulation  |
\*---------------------------------------------------------------------------*/
FoamFile
{
    version     2.0;
    format      ascii;
    class       polyBoundaryMesh;
    location    "constant/polyMesh";
    object      boundary;
}
// * * * * * * * * * * * * * * * * * * * * * * * * * * * * * * * * * * * * * //

6
(
    inlet
    {
        type            patch;
        nFaces          784;
        startFace       742640;
    }
    outlet
    {
        type            patch;
        nFaces          784;
        startFace       743424;
    }
    top
    {
        type            wall;
        inGroups        List<word> 1(wall);
        nFaces          11232;
        startFace       744208;
    }
    bottom
    {
        type            wall;
        inGroups        List<word> 1(wall);
        nFaces          12800;
        startFace       755440;
    }
    sideway
    {
        type            wall;
        inGroups        List<word> 1(wall);
        nFaces          9120;
        startFace       768240;
    }
    defaultFaces
    {
        type            empty;
        inGroups        List<word> 1(empty);
        nFaces          16000;
        startFace       777360;
    }
)

// ************************************************************************* //
